/*--------------------------------*- C++ -*----------------------------------*\
  =========                 |
  \\      /  F ield         | OpenFOAM: The Open Source CFD Toolbox
   \\    /   O peration     | Website:  https://openfoam.org
    \\  /    A nd           | Version:  13
     \\/     M anipulation  |
\*---------------------------------------------------------------------------*/
FoamFile
{
    format      ascii;
    class       extendedFeatureEdgeMesh;
    location    "constant/extendedFeatureEdgeMesh";
    object      f1wing.extendedFeatureEdgeMesh;
}
// * * * * * * * * * * * * * * * * * * * * * * * * * * * * * * * * * * * * * //

// points

3387
(
(0.185126 -1.08116 -0.157918)
(0.185126 -1.06976 -0.161646)
(0.183306 -1.07084 -0.163171)
(0.183306 -1.08134 -0.15978)
(0.186946 -1.07084 -0.163171)
(0.186946 -1.08134 -0.15978)
(0.185126 -1.06362 -0.171883)
(0.183306 -1.06533 -0.172662)
(0.184116 -1.07221 -0.175812)
(0.186136 -1.07221 -0.175812)
(0.186946 -1.06533 -0.172662)
(0.185126 -1.11448 -0.180479)
(0.182715 -1.112 -0.180426)
(0.182119 -1.10644 -0.180308)
(0.183788 -1.10197 -0.180213)
(0.186464 -1.10197 -0.180213)
(0.188132 -1.10644 -0.180308)
(0.187537 -1.112 -0.180426)
(0.185048 -1.00827 -0.141962)
(0.185048 -0.996668 -0.144999)
(0.183228 -0.997659 -0.146586)
(0.183228 -1.00834 -0.143832)
(0.186868 -0.997659 -0.146586)
(0.186868 -1.00834 -0.143832)
(0.185048 -0.989931 -0.15485)
(0.183228 -0.991583 -0.155728)
(0.184038 -0.998269 -0.159287)
(0.186058 -0.998269 -0.159287)
(0.186868 -0.991583 -0.155728)
(0.185048 -1.04018 -0.166484)
(0.182637 -1.03771 -0.166282)
(0.182042 -1.03216 -0.16583)
(0.18371 -1.02771 -0.165467)
(0.186386 -1.02771 -0.165467)
(0.188054 -1.03216 -0.16583)
(0.187459 -1.03771 -0.166282)
(0.183429 -0.935997 -0.119048)
(0.183429 -0.924038 -0.119973)
(0.181609 -0.924731 -0.12171)
(0.181609 -0.935729 -0.1209)
(0.185249 -0.924731 -0.12171)
(0.185249 -0.935729 -0.1209)
(0.183429 -0.915656 -0.128468)
(0.181609 -0.917125 -0.129627)
(0.182419 -0.923072 -0.134318)
(0.184439 -0.923072 -0.134318)
(0.185249 -0.917125 -0.129627)
(0.183429 -0.963036 -0.148853)
(0.181018 -0.960641 -0.148216)
(0.180422 -0.955259 -0.146784)
(0.182091 -0.950944 -0.145635)
(0.184767 -0.950944 -0.145635)
(0.186435 -0.955259 -0.146784)
(0.185839 -0.960641 -0.148216)
(0.383561 -0.857685 -0.125437)
(0.383561 -0.845725 -0.126361)
(0.381741 -0.846418 -0.128099)
(0.381741 -0.857416 -0.127288)
(0.385381 -0.846418 -0.128099)
(0.385381 -0.857416 -0.127288)
(0.383561 -0.837344 -0.134857)
(0.381741 -0.838813 -0.136015)
(0.382551 -0.84476 -0.140706)
(0.384571 -0.84476 -0.140706)
(0.385381 -0.838813 -0.136015)
(0.383561 -0.884723 -0.155242)
(0.38115 -0.882328 -0.154605)
(0.380555 -0.876947 -0.153172)
(0.382223 -0.872631 -0.152024)
(0.384899 -0.872631 -0.152024)
(0.386568 -0.876947 -0.153172)
(0.385972 -0.882328 -0.154605)
(0.464621 -0.902728 -0.16014)
(0.464621 -0.891123 -0.163177)
(0.462801 -0.892114 -0.164763)
(0.462801 -0.902792 -0.16201)
(0.466441 -0.892114 -0.164763)
(0.466441 -0.902792 -0.16201)
(0.464621 -0.884386 -0.173027)
(0.462801 -0.886038 -0.173906)
(0.463612 -0.892725 -0.177465)
(0.465632 -0.892725 -0.177465)
(0.466441 -0.886038 -0.173906)
(0.464621 -0.934636 -0.184661)
(0.462211 -0.932166 -0.18446)
(0.461615 -0.926615 -0.184008)
(0.463284 -0.922164 -0.183645)
(0.465959 -0.922164 -0.183645)
(0.467628 -0.926615 -0.184008)
(0.467032 -0.932166 -0.18446)
(0.438437 -0.986654 -0.168782)
(0.438437 -0.975049 -0.171819)
(0.436617 -0.97604 -0.173406)
(0.436617 -0.986718 -0.170652)
(0.440257 -0.97604 -0.173406)
(0.440257 -0.986718 -0.170652)
(0.438437 -0.968312 -0.18167)
(0.436617 -0.969963 -0.182548)
(0.437427 -0.97665 -0.186107)
(0.439447 -0.97665 -0.186107)
(0.440257 -0.969963 -0.182548)
(0.438437 -1.01856 -0.193304)
(0.436026 -1.01609 -0.193102)
(0.43543 -1.01054 -0.19265)
(0.437099 -1.00609 -0.192287)
(0.439775 -1.00609 -0.192287)
(0.441443 -1.01054 -0.19265)
(0.440848 -1.01609 -0.193102)
(0.321612 -1.02492 -0.155496)
(0.321612 -1.01332 -0.158533)
(0.319792 -1.01431 -0.16012)
(0.319792 -1.02499 -0.157366)
(0.323432 -1.01431 -0.16012)
(0.323432 -1.02499 -0.157366)
(0.321612 -1.00658 -0.168383)
(0.319792 -1.00823 -0.169262)
(0.320602 -1.01492 -0.172821)
(0.322622 -1.01492 -0.172821)
(0.323432 -1.00823 -0.169262)
(0.321612 -1.05683 -0.180017)
(0.319201 -1.05436 -0.179816)
(0.318606 -1.04881 -0.179364)
(0.320274 -1.04436 -0.179001)
(0.32295 -1.04436 -0.179001)
(0.324618 -1.04881 -0.179364)
(0.324023 -1.05436 -0.179816)
(-0.185126 -1.08116 -0.157918)
(-0.183306 -1.08134 -0.159781)
(-0.183306 -1.07084 -0.163171)
(-0.185126 -1.06976 -0.161646)
(-0.186946 -1.08134 -0.159781)
(-0.186946 -1.07084 -0.163171)
(-0.183306 -1.06533 -0.172662)
(-0.185126 -1.06362 -0.171884)
(-0.184116 -1.07221 -0.175812)
(-0.186136 -1.07221 -0.175812)
(-0.186946 -1.06533 -0.172662)
(-0.185126 -1.11448 -0.180479)
(-0.182715 -1.112 -0.180426)
(-0.18212 -1.10644 -0.180308)
(-0.183788 -1.10197 -0.180213)
(-0.186464 -1.10197 -0.180213)
(-0.188132 -1.10644 -0.180308)
(-0.187537 -1.112 -0.180426)
(-0.185048 -1.00827 -0.141962)
(-0.183228 -1.00834 -0.143832)
(-0.183228 -0.997659 -0.146586)
(-0.185048 -0.996668 -0.144999)
(-0.186868 -1.00834 -0.143832)
(-0.186868 -0.997659 -0.146586)
(-0.185048 -1.04018 -0.166484)
(-0.182637 -1.03771 -0.166282)
(-0.182042 -1.03216 -0.16583)
(-0.18371 -1.02771 -0.165467)
(-0.186386 -1.02771 -0.165467)
(-0.188055 -1.03216 -0.16583)
(-0.187459 -1.03771 -0.166282)
(-0.183429 -0.935998 -0.119048)
(-0.181609 -0.935729 -0.1209)
(-0.181609 -0.924731 -0.121711)
(-0.183429 -0.924038 -0.119973)
(-0.185249 -0.935729 -0.1209)
(-0.185249 -0.924731 -0.121711)
(-0.181609 -0.917125 -0.129627)
(-0.183429 -0.915656 -0.128468)
(-0.182419 -0.923073 -0.134318)
(-0.184439 -0.923073 -0.134318)
(-0.185249 -0.917125 -0.129627)
(-0.183429 -0.963036 -0.148853)
(-0.181018 -0.960641 -0.148216)
(-0.180422 -0.955259 -0.146784)
(-0.182091 -0.950944 -0.145635)
(-0.184767 -0.950944 -0.145635)
(-0.186435 -0.955259 -0.146784)
(-0.18584 -0.960641 -0.148216)
(-0.383561 -0.857685 -0.125437)
(-0.381741 -0.857416 -0.127288)
(-0.381741 -0.846418 -0.128099)
(-0.383561 -0.845725 -0.126361)
(-0.385381 -0.857416 -0.127288)
(-0.385381 -0.846418 -0.128099)
(-0.381741 -0.838813 -0.136015)
(-0.383561 -0.837344 -0.134857)
(-0.382551 -0.84476 -0.140706)
(-0.384571 -0.84476 -0.140706)
(-0.385381 -0.838813 -0.136015)
(-0.383561 -0.884723 -0.155242)
(-0.38115 -0.882328 -0.154605)
(-0.380555 -0.876947 -0.153172)
(-0.382223 -0.872631 -0.152024)
(-0.384899 -0.872631 -0.152024)
(-0.386567 -0.876947 -0.153172)
(-0.385972 -0.882328 -0.154605)
(-0.464621 -0.902728 -0.16014)
(-0.462802 -0.902793 -0.16201)
(-0.462802 -0.892115 -0.164764)
(-0.464621 -0.891123 -0.163177)
(-0.466441 -0.902793 -0.16201)
(-0.466441 -0.892115 -0.164764)
(-0.462802 -0.886038 -0.173906)
(-0.464621 -0.884386 -0.173027)
(-0.463612 -0.892725 -0.177465)
(-0.465631 -0.892725 -0.177465)
(-0.466441 -0.886038 -0.173906)
(-0.464621 -0.934636 -0.184661)
(-0.46221 -0.932166 -0.18446)
(-0.461615 -0.926615 -0.184008)
(-0.463283 -0.922164 -0.183645)
(-0.465959 -0.922164 -0.183645)
(-0.467628 -0.926615 -0.184008)
(-0.467032 -0.932166 -0.18446)
(-0.438437 -0.986654 -0.168782)
(-0.436617 -0.986718 -0.170652)
(-0.436617 -0.97604 -0.173406)
(-0.438437 -0.975049 -0.171819)
(-0.440256 -0.986718 -0.170652)
(-0.440256 -0.97604 -0.173406)
(-0.436617 -0.969964 -0.182549)
(-0.438437 -0.968312 -0.18167)
(-0.437427 -0.97665 -0.186107)
(-0.439446 -0.97665 -0.186107)
(-0.440256 -0.969964 -0.182549)
(-0.438437 -1.01856 -0.193304)
(-0.436026 -1.01609 -0.193103)
(-0.43543 -1.01054 -0.19265)
(-0.437099 -1.00609 -0.192287)
(-0.439775 -1.00609 -0.192287)
(-0.441443 -1.01054 -0.19265)
(-0.440848 -1.01609 -0.193103)
(-0.321612 -1.02492 -0.155496)
(-0.319792 -1.02499 -0.157366)
(-0.319792 -1.01431 -0.16012)
(-0.321612 -1.01332 -0.158533)
(-0.323432 -1.02499 -0.157366)
(-0.323432 -1.01431 -0.16012)
(-0.319792 -1.00823 -0.169262)
(-0.321612 -1.00658 -0.168383)
(-0.320602 -1.01492 -0.172821)
(-0.322622 -1.01492 -0.172821)
(-0.323432 -1.00823 -0.169262)
(-0.321612 -1.05683 -0.180017)
(-0.319201 -1.05436 -0.179816)
(-0.318606 -1.04881 -0.179364)
(-0.320274 -1.04436 -0.179001)
(-0.32295 -1.04436 -0.179001)
(-0.324618 -1.04881 -0.179364)
(-0.324023 -1.05436 -0.179816)
(0.598037 -0.761491 -0.0974392)
(0.600486 -0.761246 -0.0988044)
(0.600486 -0.76176 -0.0960848)
(0.601896 -0.760215 -0.0957138)
(0.600778 -0.759892 -0.0967254)
(0.601896 -0.759809 -0.0978444)
(0.612101 -0.760215 -0.0957138)
(0.613219 -0.759892 -0.0967254)
(0.612101 -0.759809 -0.0978444)
(0.615959 -0.950284 -0.132358)
(0.61351 -0.95053 -0.131)
(0.612101 -0.951813 -0.131044)
(0.613219 -0.95171 -0.13209)
(0.612101 -0.951406 -0.133174)
(0.601896 -0.951813 -0.131044)
(0.600778 -0.95171 -0.13209)
(0.600486 -0.95053 -0.131)
(0.598037 -0.950284 -0.132358)
(0.61351 -0.76176 -0.0960848)
(0.615959 -0.761491 -0.0974392)
(-0.600486 -0.761246 -0.0988044)
(-0.598037 -0.76149 -0.0974392)
(-0.600486 -0.76176 -0.0960847)
(-0.600778 -0.759892 -0.0967254)
(-0.601896 -0.760215 -0.0957138)
(-0.601896 -0.759809 -0.0978444)
(-0.613219 -0.759892 -0.0967254)
(-0.6121 -0.760215 -0.0957138)
(-0.6121 -0.759809 -0.0978444)
(-0.615959 -0.950284 -0.132358)
(-0.61351 -0.95053 -0.131)
(-0.613219 -0.951709 -0.13209)
(-0.6121 -0.951813 -0.131044)
(-0.6121 -0.951406 -0.133174)
(-0.600778 -0.951709 -0.13209)
(-0.601896 -0.951813 -0.131044)
(-0.600486 -0.95053 -0.131)
(-0.598037 -0.950284 -0.132358)
(-0.61351 -0.76176 -0.0960847)
(-0.615959 -0.76149 -0.0974392)
(0.594816 -0.757406 0.0181289)
(0.594816 -0.752476 0.0141724)
(-0.594816 -0.757404 0.0181286)
(-0.594816 -0.752475 0.0141721)
(0.114575 -0.372202 -0.0747336)
(-0.114575 -0.372202 -0.0747336)
(0.175352 -0.463598 0.0655807)
(0.175365 -0.463343 0.0664809)
(0.175352 -0.463613 0.0673613)
(0.175352 -0.57319 0.059312)
(0.0922171 -0.463598 0.0655807)
(0.0922171 -0.463613 0.0673613)
(0.0921927 -0.463343 0.0664809)
(0.0922171 -0.57327 0.0618463)
(0.0922171 -0.57319 0.059312)
(0.175352 -0.57327 0.0618463)
(-0.175352 -0.463613 0.0673613)
(-0.175365 -0.463343 0.0664809)
(-0.175352 -0.463598 0.0655807)
(-0.175352 -0.57319 0.059312)
(-0.0922172 -0.463598 0.0655807)
(-0.0921928 -0.463343 0.0664809)
(-0.0922172 -0.463613 0.0673613)
(-0.0922172 -0.57319 0.059312)
(-0.0922172 -0.57327 0.0618463)
(-0.175352 -0.57327 0.0618463)
(0.184116 -1.07523 -0.169343)
(0.184116 -1.08205 -0.167321)
(0.186136 -1.07523 -0.169343)
(0.186136 -1.08205 -0.167321)
(0.184038 -1.00167 -0.153011)
(0.184038 -1.0086 -0.151402)
(0.186058 -1.00167 -0.153011)
(0.186058 -1.0086 -0.151402)
(0.182419 -0.927536 -0.128747)
(0.182419 -0.93464 -0.128396)
(0.184439 -0.927536 -0.128747)
(0.184439 -0.93464 -0.128396)
(0.382551 -0.849223 -0.135135)
(0.382551 -0.856327 -0.134784)
(0.384571 -0.849223 -0.135135)
(0.384571 -0.856327 -0.134784)
(0.463612 -0.896125 -0.171189)
(0.463612 -0.903054 -0.16958)
(0.465632 -0.896125 -0.171189)
(0.465632 -0.903054 -0.16958)
(0.437427 -0.980052 -0.179831)
(0.437427 -0.98698 -0.178222)
(0.439447 -0.980052 -0.179831)
(0.439447 -0.98698 -0.178222)
(0.320602 -1.01832 -0.166545)
(0.320602 -1.02525 -0.164936)
(0.322622 -1.01832 -0.166545)
(0.322622 -1.02525 -0.164936)
(-0.184116 -1.08205 -0.167321)
(-0.184116 -1.07523 -0.169344)
(-0.186136 -1.08205 -0.167321)
(-0.186136 -1.07523 -0.169344)
(-0.184038 -1.0086 -0.151402)
(-0.184038 -1.00167 -0.153011)
(-0.186058 -1.0086 -0.151402)
(-0.186058 -1.00167 -0.153011)
(-0.183228 -0.991583 -0.155729)
(-0.185048 -0.989931 -0.15485)
(-0.184038 -0.998269 -0.159287)
(-0.186058 -0.998269 -0.159287)
(-0.186868 -0.991583 -0.155729)
(-0.182419 -0.93464 -0.128396)
(-0.182419 -0.927536 -0.128747)
(-0.184439 -0.93464 -0.128396)
(-0.184439 -0.927536 -0.128747)
(-0.382551 -0.856327 -0.134784)
(-0.382551 -0.849223 -0.135135)
(-0.384571 -0.856327 -0.134784)
(-0.384571 -0.849223 -0.135135)
(-0.463612 -0.903054 -0.16958)
(-0.463612 -0.896126 -0.171189)
(-0.465631 -0.903054 -0.16958)
(-0.465631 -0.896126 -0.171189)
(-0.437427 -0.98698 -0.178222)
(-0.437427 -0.980051 -0.179831)
(-0.439446 -0.98698 -0.178222)
(-0.439446 -0.980051 -0.179831)
(-0.320602 -1.02525 -0.164936)
(-0.320602 -1.01832 -0.166545)
(-0.322622 -1.02525 -0.164936)
(-0.322622 -1.01832 -0.166545)
(0.596516 -0.933919 -0.152986)
(0.594803 -0.934268 -0.153109)
(0.594694 -0.936912 -0.153133)
(0.592988 -0.937199 -0.152862)
(0.597847 -0.935444 -0.151871)
(0.596382 -0.863483 -0.152637)
(0.594658 -0.863784 -0.152747)
(0.594624 -0.866426 -0.152783)
(0.592925 -0.866729 -0.152486)
(0.597807 -0.864946 -0.151479)
(0.591592 -0.862873 -0.151707)
(0.596415 -0.801931 -0.152871)
(0.594689 -0.802231 -0.152987)
(0.594557 -0.8059 -0.152963)
(0.592867 -0.806168 -0.152635)
(-0.596516 -0.933918 -0.152986)
(-0.594803 -0.934266 -0.153109)
(-0.594694 -0.936911 -0.153133)
(-0.592988 -0.937198 -0.152862)
(-0.597847 -0.935443 -0.151871)
(-0.596383 -0.863481 -0.152638)
(-0.594659 -0.863782 -0.152747)
(-0.594624 -0.866424 -0.152783)
(-0.592925 -0.866728 -0.152486)
(-0.591592 -0.862871 -0.151707)
(-0.597807 -0.864944 -0.151479)
(-0.596415 -0.80193 -0.152871)
(-0.594689 -0.80223 -0.152988)
(-0.594557 -0.805898 -0.152963)
(-0.592867 -0.806166 -0.152636)
(0.0987079 -0.988755 -0.148323)
(-0.098708 -0.988755 -0.148323)
(-0.182779 -0.995293 -0.157703)
(-0.187318 -0.995293 -0.157703)
(0.182856 -1.06915 -0.17441)
(0.187395 -1.06915 -0.17441)
(0.185126 -1.10458 -0.169943)
(0.183306 -1.10305 -0.171027)
(0.182856 -1.09963 -0.173464)
(0.184116 -1.09688 -0.175418)
(0.186136 -1.09688 -0.175418)
(0.187395 -1.09963 -0.173464)
(0.186946 -1.10305 -0.171027)
(0.185126 -1.09547 -0.162118)
(0.183306 -1.09469 -0.163819)
(0.184116 -1.09154 -0.170708)
(0.186136 -1.09154 -0.170708)
(0.186946 -1.09469 -0.163819)
(0.182779 -0.995293 -0.157703)
(0.187318 -0.995293 -0.157703)
(0.185048 -1.03093 -0.155372)
(0.183228 -1.02934 -0.156363)
(0.182779 -1.02577 -0.158589)
(0.184038 -1.02291 -0.160374)
(0.186058 -1.02291 -0.160374)
(0.187318 -1.02577 -0.158589)
(0.186868 -1.02934 -0.156363)
(0.185048 -1.0223 -0.147014)
(0.183228 -1.02142 -0.148666)
(0.184038 -1.01786 -0.155352)
(0.186058 -1.01786 -0.155352)
(0.186868 -1.02142 -0.148666)
(0.181159 -0.920426 -0.13223)
(0.185698 -0.920426 -0.13223)
(0.183429 -0.955904 -0.136273)
(0.181609 -0.954166 -0.136965)
(0.181159 -0.950261 -0.138522)
(0.182419 -0.94713 -0.13977)
(0.184439 -0.94713 -0.13977)
(0.185698 -0.950261 -0.138522)
(0.185249 -0.954166 -0.136965)
(0.183429 -0.948905 -0.126514)
(0.181609 -0.947746 -0.127983)
(0.182419 -0.943055 -0.133931)
(0.184439 -0.943055 -0.133931)
(0.185249 -0.947746 -0.127983)
(0.381292 -0.842113 -0.138619)
(0.385831 -0.842113 -0.138619)
(0.383561 -0.877591 -0.142661)
(0.381741 -0.875854 -0.143354)
(0.381292 -0.871949 -0.144911)
(0.382551 -0.868817 -0.146159)
(0.384571 -0.868817 -0.146159)
(0.385831 -0.871949 -0.144911)
(0.385381 -0.875854 -0.143354)
(0.383561 -0.870592 -0.132903)
(0.381741 -0.869434 -0.134372)
(0.382551 -0.864743 -0.140319)
(0.384571 -0.864743 -0.140319)
(0.385381 -0.869434 -0.134372)
(0.462352 -0.889749 -0.175881)
(0.466891 -0.889749 -0.175881)
(0.464621 -0.925381 -0.17355)
(0.462801 -0.923793 -0.17454)
(0.462352 -0.920228 -0.176767)
(0.463612 -0.917369 -0.178552)
(0.465632 -0.917369 -0.178552)
(0.466891 -0.920228 -0.176767)
(0.466441 -0.923793 -0.17454)
(0.464621 -0.916757 -0.165192)
(0.462801 -0.915878 -0.166843)
(0.463612 -0.91232 -0.17353)
(0.465632 -0.91232 -0.17353)
(0.466441 -0.915878 -0.166843)
(0.436167 -0.973674 -0.184523)
(0.440706 -0.973674 -0.184523)
(0.438437 -1.00931 -0.182192)
(0.436617 -1.00772 -0.183183)
(0.436167 -1.00415 -0.185409)
(0.437427 -1.00129 -0.187194)
(0.439447 -1.00129 -0.187194)
(0.440706 -1.00415 -0.185409)
(0.440257 -1.00772 -0.183183)
(0.438437 -1.00068 -0.173834)
(0.436617 -0.999804 -0.175486)
(0.437427 -0.996246 -0.182172)
(0.439447 -0.996246 -0.182172)
(0.440257 -0.999804 -0.175486)
(0.319343 -1.01194 -0.171237)
(0.323882 -1.01194 -0.171237)
(0.321612 -1.04758 -0.168906)
(0.319792 -1.04599 -0.169897)
(0.319343 -1.04242 -0.172123)
(0.320602 -1.03956 -0.173908)
(0.322622 -1.03956 -0.173908)
(0.323882 -1.04242 -0.172123)
(0.323432 -1.04599 -0.169897)
(0.321612 -1.03895 -0.160548)
(0.319792 -1.03807 -0.162199)
(0.320602 -1.03452 -0.168886)
(0.322622 -1.03452 -0.168886)
(0.323432 -1.03807 -0.162199)
(-0.182856 -1.06915 -0.17441)
(-0.187395 -1.06915 -0.17441)
(-0.183306 -1.10305 -0.171027)
(-0.185126 -1.10458 -0.169943)
(-0.182856 -1.09963 -0.173464)
(-0.184116 -1.09688 -0.175418)
(-0.186136 -1.09688 -0.175418)
(-0.187395 -1.09963 -0.173464)
(-0.186946 -1.10305 -0.171027)
(-0.183306 -1.09469 -0.163819)
(-0.185126 -1.09547 -0.162118)
(-0.184116 -1.09154 -0.170708)
(-0.186136 -1.09154 -0.170708)
(-0.186946 -1.09469 -0.163819)
(-0.183228 -1.02934 -0.156363)
(-0.185048 -1.03093 -0.155372)
(-0.182779 -1.02577 -0.158589)
(-0.184038 -1.02291 -0.160375)
(-0.186058 -1.02291 -0.160375)
(-0.187318 -1.02577 -0.158589)
(-0.186868 -1.02934 -0.156363)
(-0.183228 -1.02142 -0.148666)
(-0.185048 -1.0223 -0.147014)
(-0.184038 -1.01786 -0.155352)
(-0.186058 -1.01786 -0.155352)
(-0.186868 -1.02142 -0.148666)
(-0.181159 -0.920426 -0.13223)
(-0.185698 -0.920426 -0.13223)
(-0.181609 -0.954166 -0.136966)
(-0.183429 -0.955904 -0.136273)
(-0.181159 -0.950262 -0.138522)
(-0.182419 -0.94713 -0.139771)
(-0.184439 -0.94713 -0.139771)
(-0.185698 -0.950262 -0.138522)
(-0.185249 -0.954166 -0.136966)
(-0.181609 -0.947746 -0.127983)
(-0.183429 -0.948905 -0.126515)
(-0.182419 -0.943055 -0.133931)
(-0.184439 -0.943055 -0.133931)
(-0.185249 -0.947746 -0.127983)
(-0.381292 -0.842113 -0.138619)
(-0.385831 -0.842113 -0.138619)
(-0.381741 -0.875854 -0.143354)
(-0.383561 -0.877592 -0.142661)
(-0.381292 -0.871949 -0.144911)
(-0.382551 -0.868817 -0.146159)
(-0.384571 -0.868817 -0.146159)
(-0.385831 -0.871949 -0.144911)
(-0.385381 -0.875854 -0.143354)
(-0.381741 -0.869434 -0.134372)
(-0.383561 -0.870592 -0.132903)
(-0.382551 -0.864743 -0.140319)
(-0.384571 -0.864743 -0.140319)
(-0.385381 -0.869434 -0.134372)
(-0.462352 -0.889749 -0.175881)
(-0.466891 -0.889749 -0.175881)
(-0.462802 -0.923794 -0.174541)
(-0.464621 -0.925381 -0.17355)
(-0.462352 -0.920228 -0.176767)
(-0.463612 -0.917369 -0.178552)
(-0.465631 -0.917369 -0.178552)
(-0.466891 -0.920228 -0.176767)
(-0.466441 -0.923794 -0.174541)
(-0.462802 -0.915878 -0.166843)
(-0.464621 -0.916757 -0.165192)
(-0.463612 -0.91232 -0.17353)
(-0.465631 -0.91232 -0.17353)
(-0.466441 -0.915878 -0.166843)
(-0.436167 -0.973674 -0.184523)
(-0.440706 -0.973674 -0.184523)
(-0.436617 -1.00772 -0.183183)
(-0.438437 -1.00931 -0.182192)
(-0.436167 -1.00415 -0.185409)
(-0.437427 -1.00129 -0.187195)
(-0.439446 -1.00129 -0.187195)
(-0.440706 -1.00415 -0.185409)
(-0.440256 -1.00772 -0.183183)
(-0.436617 -0.999804 -0.175486)
(-0.438437 -1.00068 -0.173834)
(-0.437427 -0.996246 -0.182173)
(-0.439446 -0.996246 -0.182173)
(-0.440256 -0.999804 -0.175486)
(-0.319342 -1.01194 -0.171237)
(-0.323881 -1.01194 -0.171237)
(-0.319792 -1.04599 -0.169897)
(-0.321612 -1.04758 -0.168906)
(-0.319342 -1.04242 -0.172123)
(-0.320602 -1.03956 -0.173908)
(-0.322622 -1.03956 -0.173908)
(-0.323881 -1.04242 -0.172123)
(-0.323432 -1.04599 -0.169897)
(-0.319792 -1.03807 -0.162199)
(-0.321612 -1.03895 -0.160548)
(-0.320602 -1.03452 -0.168886)
(-0.322622 -1.03452 -0.168886)
(-0.323432 -1.03807 -0.162199)
(0.597644 -0.768645 -0.100633)
(0.606998 -0.759644 -0.0980241)
(0.606998 -0.760139 -0.0954268)
(0.616352 -0.943655 -0.133602)
(0.61351 -0.950017 -0.133719)
(0.606998 -0.951461 -0.133389)
(0.606998 -0.951957 -0.130792)
(0.601896 -0.951406 -0.133174)
(0.616352 -0.807238 -0.116464)
(0.616352 -0.832344 -0.124572)
(0.616352 -0.858213 -0.13118)
(0.597644 -0.907406 -0.137552)
(0.597644 -0.883529 -0.135803)
(0.597644 -0.858213 -0.13118)
(0.597644 -0.943655 -0.133602)
(0.597644 -0.928556 -0.136079)
(0.616352 -0.883529 -0.135803)
(0.616352 -0.907406 -0.137552)
(0.616352 -0.768645 -0.100633)
(0.616352 -0.784774 -0.107658)
(0.597644 -0.832344 -0.124572)
(0.597644 -0.807238 -0.116464)
(0.616352 -0.928556 -0.136079)
(0.597644 -0.784774 -0.107658)
(-0.597644 -0.768645 -0.100632)
(-0.606998 -0.759644 -0.0980241)
(-0.606998 -0.760139 -0.0954268)
(-0.61351 -0.950017 -0.133719)
(-0.616352 -0.943655 -0.133602)
(-0.606998 -0.951461 -0.133389)
(-0.606998 -0.951957 -0.130792)
(-0.601896 -0.951406 -0.133174)
(-0.616352 -0.832344 -0.124572)
(-0.616352 -0.807238 -0.116464)
(-0.616352 -0.858213 -0.13118)
(-0.597644 -0.883529 -0.135803)
(-0.597644 -0.907406 -0.137552)
(-0.597644 -0.858213 -0.13118)
(-0.597644 -0.928556 -0.136079)
(-0.597644 -0.943655 -0.133602)
(-0.616352 -0.883529 -0.135803)
(-0.616352 -0.907406 -0.137552)
(-0.616352 -0.784774 -0.107658)
(-0.616352 -0.768645 -0.100632)
(-0.597644 -0.832344 -0.124572)
(-0.597644 -0.807238 -0.116464)
(-0.616352 -0.928556 -0.136079)
(-0.597644 -0.784774 -0.107658)
(0.189507 -0.935698 -0.138345)
(0.209556 -0.925199 -0.1363)
(0.209639 -0.927051 -0.134975)
(0.189498 -0.937528 -0.136999)
(0.230853 -0.91481 -0.135139)
(0.23103 -0.916674 -0.133832)
(0.209605 -0.92625 -0.132862)
(0.189393 -0.936723 -0.134898)
(0.231064 -0.915879 -0.13171)
(0.170937 -0.945876 -0.141242)
(0.253162 -0.904961 -0.134891)
(0.253428 -0.906823 -0.133597)
(0.253524 -0.906037 -0.131473)
(0.170674 -0.946868 -0.137788)
(0.170851 -0.947676 -0.139874)
(0.237015 -1.15494 -0.182193)
(0.256259 -1.14685 -0.181785)
(0.256557 -1.1483 -0.180025)
(0.237274 -1.15638 -0.180427)
(0.275702 -1.13862 -0.181956)
(0.27603 -1.14007 -0.1802)
(0.256234 -1.14696 -0.178171)
(0.2369 -1.15506 -0.178581)
(0.275765 -1.13872 -0.178342)
(0.217626 -1.16303 -0.183197)
(0.295687 -1.13013 -0.182687)
(0.296035 -1.13158 -0.180932)
(0.295833 -1.13022 -0.179074)
(0.217425 -1.16316 -0.179588)
(0.217837 -1.16445 -0.181426)
(0.439785 -0.915065 -0.183149)
(0.412721 -0.92255 -0.180159)
(0.412817 -0.921514 -0.178251)
(0.439866 -0.914034 -0.181262)
(0.386138 -0.930204 -0.17695)
(0.386227 -0.929166 -0.175031)
(0.413197 -0.922839 -0.176596)
(0.440176 -0.915324 -0.179605)
(0.386649 -0.93052 -0.173381)
(0.467022 -0.90777 -0.185835)
(0.360346 -0.938001 -0.173607)
(0.360417 -0.936965 -0.171679)
(0.360857 -0.938342 -0.170038)
(0.467259 -0.907998 -0.182334)
(0.467052 -0.906749 -0.183986)
(0.223319 -0.839362 -0.103259)
(0.202534 -0.849974 -0.105506)
(0.202528 -0.849559 -0.103255)
(0.223376 -0.838964 -0.101001)
(0.183055 -0.860979 -0.108947)
(0.182984 -0.860545 -0.10671)
(0.20287 -0.851546 -0.102284)
(0.223788 -0.840976 -0.10007)
(0.183242 -0.862496 -0.105693)
(0.245337 -0.829787 -0.102164)
(0.164956 -0.871734 -0.113623)
(0.164814 -0.87127 -0.111412)
(0.164977 -0.873181 -0.110338)
(0.245924 -0.831429 -0.0990055)
(0.245455 -0.829407 -0.0999013)
(0.258122 -1.05541 -0.178912)
(0.2378 -1.0641 -0.179023)
(0.237496 -1.06276 -0.17717)
(0.257877 -1.05405 -0.177054)
(0.218193 -1.07317 -0.179828)
(0.217837 -1.07185 -0.177982)
(0.237813 -1.06421 -0.175409)
(0.258223 -1.0555 -0.175299)
(0.218115 -1.07329 -0.176216)
(0.279339 -1.04702 -0.179605)
(0.199122 -1.08267 -0.18122)
(0.198727 -1.08138 -0.179382)
(0.198956 -1.08279 -0.17761)
(0.279519 -1.04709 -0.175993)
(0.279154 -1.04565 -0.177747)
(0.383618 -0.924681 -0.171932)
(0.41121 -0.9166 -0.175287)
(0.411655 -0.917915 -0.173784)
(0.384087 -0.926033 -0.170471)
(0.439309 -0.908638 -0.178598)
(0.439703 -0.909911 -0.177053)
(0.411927 -0.917338 -0.171834)
(0.384335 -0.925488 -0.168484)
(0.439972 -0.909294 -0.175149)
(0.357027 -0.932768 -0.16863)
(0.467418 -0.900909 -0.181769)
(0.467732 -0.902138 -0.18019)
(0.467959 -0.901477 -0.178338)
(0.357708 -0.933628 -0.165186)
(0.357497 -0.934149 -0.167198)
(0.437757 -0.852752 -0.162505)
(0.408849 -0.861255 -0.157158)
(0.409307 -0.86091 -0.155126)
(0.438193 -0.852336 -0.160494)
(0.380333 -0.86981 -0.152313)
(0.380778 -0.869523 -0.150275)
(0.409747 -0.862389 -0.153864)
(0.438603 -0.853785 -0.159204)
(0.381218 -0.871024 -0.149029)
(0.466386 -0.844529 -0.168147)
(0.352879 -0.878188 -0.148175)
(0.353289 -0.877942 -0.146139)
(0.353716 -0.879459 -0.144897)
(0.467091 -0.845445 -0.164851)
(0.46675 -0.844038 -0.166178)
(0.587508 -0.875162 -0.181638)
(0.582076 -0.877111 -0.185602)
(0.581079 -0.876134 -0.184483)
(0.586311 -0.874179 -0.180709)
(0.573373 -0.8798 -0.188485)
(0.572593 -0.878826 -0.187184)
(0.580148 -0.877193 -0.183358)
(0.585183 -0.875235 -0.179774)
(0.571876 -0.879895 -0.185886)
(0.590833 -0.8737 -0.176734)
(0.560234 -0.883482 -0.190145)
(0.559669 -0.882508 -0.188682)
(0.55917 -0.883595 -0.187242)
(0.588179 -0.873764 -0.175255)
(0.589472 -0.87271 -0.175995)
(0.276316 -0.895947 -0.135581)
(0.300416 -0.887522 -0.1372)
(0.300819 -0.889338 -0.135911)
(0.276657 -0.897792 -0.134293)
(0.325627 -0.879307 -0.139734)
(0.326083 -0.881082 -0.138435)
(0.30102 -0.888579 -0.133803)
(0.276809 -0.89702 -0.132173)
(0.326331 -0.880334 -0.136346)
(0.352114 -0.870921 -0.143165)
(0.352616 -0.872645 -0.14185)
(0.352914 -0.871902 -0.139786)
(0.316491 -1.1213 -0.183949)
(0.338131 -1.11217 -0.185668)
(0.338498 -1.11356 -0.183902)
(0.316852 -1.12273 -0.182191)
(0.360559 -1.1028 -0.187758)
(0.360923 -1.10416 -0.185983)
(0.33841 -1.11221 -0.18206)
(0.316711 -1.12137 -0.180338)
(0.360878 -1.10283 -0.184152)
(0.383726 -1.09327 -0.190135)
(0.38408 -1.09459 -0.18835)
(0.38406 -1.09328 -0.18653)
(0.318689 -0.807987 -0.106401)
(0.292964 -0.814624 -0.103569)
(0.293214 -0.814289 -0.101293)
(0.319008 -0.807664 -0.104129)
(0.268536 -0.821681 -0.102218)
(0.268719 -0.821324 -0.099948)
(0.293757 -0.816274 -0.100457)
(0.319581 -0.809608 -0.103303)
(0.26923 -0.823336 -0.0990856)
(0.345783 -0.801136 -0.110901)
(0.346776 -0.802701 -0.10781)
(0.346171 -0.80081 -0.108647)
(0.348408 -1.0229 -0.186101)
(0.324656 -1.03085 -0.183395)
(0.324579 -1.0295 -0.181553)
(0.348368 -1.02157 -0.184271)
(0.301564 -1.03886 -0.181155)
(0.301437 -1.0375 -0.179303)
(0.324955 -1.03089 -0.179788)
(0.348737 -1.02292 -0.182496)
(0.301812 -1.03891 -0.177546)
(0.372612 -1.01493 -0.189053)
(0.372947 -1.01494 -0.185448)
(0.372592 -1.01362 -0.187232)
(0.586546 -0.812466 -0.180323)
(0.581169 -0.813771 -0.183682)
(0.58027 -0.812956 -0.18248)
(0.58543 -0.811635 -0.179309)
(0.57263 -0.815906 -0.185474)
(0.571972 -0.815118 -0.184094)
(0.579432 -0.814004 -0.181328)
(0.584368 -0.812636 -0.178327)
(0.571374 -0.816218 -0.182801)
(0.58992 -0.811659 -0.175776)
(0.55977 -0.819206 -0.18532)
(0.559361 -0.818457 -0.183776)
(0.559002 -0.819616 -0.18239)
(0.587375 -0.81178 -0.174153)
(0.588624 -0.810819 -0.174952)
(0.575149 -0.940376 -0.188618)
(0.583932 -0.937522 -0.185497)
(0.583082 -0.938583 -0.184304)
(0.574519 -0.941448 -0.187267)
(0.589468 -0.935668 -0.181534)
(0.58841 -0.936725 -0.180522)
(0.582167 -0.937608 -0.183117)
(0.573826 -0.940477 -0.185912)
(0.587285 -0.935742 -0.179515)
(0.562102 -0.944668 -0.190892)
(0.592775 -0.934377 -0.176736)
(0.591539 -0.935431 -0.175915)
(0.590236 -0.934441 -0.175097)
(0.561208 -0.944788 -0.187912)
(0.561688 -0.945759 -0.189414)
(0.596443 -0.923387 -0.0288008)
(0.596443 -0.920928 -0.0261322)
(0.594816 -0.920636 -0.0235931)
(0.594816 -0.923082 -0.0263158)
(0.594816 -0.918098 -0.0218119)
(0.593189 -0.920931 -0.0261231)
(0.593189 -0.923388 -0.0287919)
(0.596443 -0.926421 -0.033127)
(0.594816 -0.9148 -0.0202221)
(0.593189 -0.926422 -0.0331181)
(0.594816 -0.9261 -0.03073)
(0.379933 -0.862092 -0.147459)
(0.408691 -0.852985 -0.152499)
(0.409255 -0.854584 -0.15113)
(0.380475 -0.863758 -0.14612)
(0.437885 -0.843872 -0.158146)
(0.438441 -0.845398 -0.156744)
(0.409646 -0.853826 -0.149136)
(0.380824 -0.86301 -0.144088)
(0.438844 -0.844624 -0.154795)
(0.46701 -0.835024 -0.164265)
(0.467515 -0.836473 -0.162826)
(0.467886 -0.835682 -0.16093)
(0.594582 -0.997066 -0.171614)
(0.595572 -0.996818 -0.165874)
(0.594076 -0.997783 -0.165443)
(0.593173 -0.998034 -0.171012)
(0.596061 -0.99674 -0.160507)
(0.594507 -0.997703 -0.160222)
(0.592561 -0.996858 -0.164999)
(0.591737 -0.997115 -0.170396)
(0.592942 -0.996771 -0.159925)
(0.592874 -0.997596 -0.177098)
(0.596265 -0.996723 -0.156138)
(0.594676 -0.997684 -0.155966)
(0.59308 -0.996746 -0.155781)
(0.59027 -0.997652 -0.175513)
(0.59159 -0.998565 -0.176314)
(0.407557 -1.0836 -0.192667)
(0.431879 -1.07367 -0.195041)
(0.432182 -1.07494 -0.193249)
(0.407893 -1.0849 -0.190876)
(0.45649 -1.0633 -0.196898)
(0.456738 -1.06453 -0.195115)
(0.432148 -1.07368 -0.191443)
(0.407877 -1.08361 -0.189062)
(0.456665 -1.0633 -0.193323)
(0.481192 -1.0523 -0.197879)
(0.481354 -1.05349 -0.196119)
(0.481221 -1.0523 -0.194351)
(0.574479 -0.871894 -0.187528)
(0.582983 -0.86903 -0.184983)
(0.5822 -0.870038 -0.183778)
(0.573934 -0.872932 -0.186175)
(0.5882 -0.86689 -0.18125)
(0.587189 -0.867869 -0.180215)
(0.581351 -0.869184 -0.182537)
(0.573321 -0.872088 -0.184774)
(0.586119 -0.867013 -0.179153)
(0.561493 -0.875737 -0.188717)
(0.591324 -0.865217 -0.176498)
(0.590118 -0.866171 -0.175647)
(0.588861 -0.865315 -0.174775)
(0.560794 -0.875983 -0.185711)
(0.561177 -0.876808 -0.187249)
(0.594816 -0.86213 -0.00236686)
(0.594816 -0.864863 -0.00312573)
(0.594816 -0.859394 -0.00163071)
(0.594816 -0.855966 -0.000755832)
(0.594816 -0.868284 -0.00406872)
(0.43334 -0.777723 -0.134102)
(0.403574 -0.785674 -0.125005)
(0.404078 -0.785272 -0.122846)
(0.433857 -0.777262 -0.132013)
(0.374216 -0.793618 -0.117173)
(0.374672 -0.793263 -0.114958)
(0.404746 -0.787033 -0.121906)
(0.434518 -0.778944 -0.130991)
(0.375314 -0.795094 -0.114082)
(0.463003 -0.770184 -0.144172)
(0.464078 -0.771249 -0.141044)
(0.463475 -0.769656 -0.142163)
(0.44698 -0.990353 -0.196638)
(0.421879 -0.99867 -0.194648)
(0.421835 -0.997406 -0.192843)
(0.446889 -0.989125 -0.194849)
(0.397103 -1.00686 -0.192007)
(0.397082 -1.00557 -0.190194)
(0.422128 -0.99867 -0.191051)
(0.447118 -0.990355 -0.193068)
(0.397414 -1.00686 -0.188403)
(0.472447 -0.9819 -0.197641)
(0.472416 -0.981909 -0.194125)
(0.472283 -0.980718 -0.19588)
(0.594755 -0.933313 -0.171198)
(0.595845 -0.932547 -0.165377)
(0.594341 -0.933567 -0.164974)
(0.593378 -0.934361 -0.170575)
(0.596355 -0.932257 -0.159859)
(0.594716 -0.933202 -0.159717)
(0.592794 -0.932592 -0.164489)
(0.591943 -0.933367 -0.169942)
(0.593052 -0.932293 -0.159303)
(0.59653 -0.932669 -0.155448)